*HEADING
Module 5 sine-arch truss bridge, PLA, total load 100 N
*NODE, NSET=NALL
1, 0.000000, 2.000000, 4.000000
2, 20.000000, 2.000000, 4.000000
3, 40.000000, 2.000000, 4.000000
4, 60.000000, 2.000000, 4.000000
5, 80.000000, 2.000000, 4.000000
6, 100.000000, 2.000000, 4.000000
7, 120.000000, 2.000000, 4.000000
8, 0.000000, 2.000000, 16.000000
9, 20.000000, 2.000000, 29.000000
10, 40.000000, 2.000000, 38.516660
11, 60.000000, 2.000000, 42.000000
12, 80.000000, 2.000000, 38.516660
13, 100.000000, 2.000000, 29.000000
14, 120.000000, 2.000000, 16.000000
15, 0.000000, 28.000000, 4.000000
16, 20.000000, 28.000000, 4.000000
17, 40.000000, 28.000000, 4.000000
18, 60.000000, 28.000000, 4.000000
19, 80.000000, 28.000000, 4.000000
20, 100.000000, 28.000000, 4.000000
** ... 8 like lines cut
*ELEMENT, TYPE=B31, ELSET=SIDE_MEMBERS
1, 1, 2
2, 8, 9
3, 1, 9
4, 2, 8
5, 2, 3
6, 9, 10
7, 2, 10
8, 3, 9
9, 3, 4
10, 10, 11
11, 3, 11
12, 4, 10
13, 4, 5
14, 11, 12
15, 4, 12
16, 5, 11
17, 5, 6
18, 12, 13
19, 5, 13
20, 6, 12
** ... 42 like lines cut
*ELEMENT, TYPE=B31, ELSET=CROSS_MEMBERS
63, 1, 15
64, 8, 22
65, 2, 16
66, 9, 23
67, 3, 17
68, 10, 24
69, 4, 18
70, 11, 25
71, 5, 19
72, 12, 26
73, 6, 20
74, 13, 27
75, 7, 21
76, 14, 28
77, 1, 16
78, 15, 2
79, 2, 17
80, 16, 3
81, 3, 18
82, 17, 4
** ... 6 like lines cut
*MATERIAL, NAME=PLA
*ELASTIC
3000.0, 0.35
*BEAM SECTION, ELSET=SIDE_MEMBERS, MATERIAL=PLA, SECTION=RECT
3.545, 3.545
0.0, 1.0, 0.0
*BEAM SECTION, ELSET=CROSS_MEMBERS, MATERIAL=PLA, SECTION=RECT
2.836, 2.836
0.0, 0.0, 1.0
*STEP, INC=100
*STATIC
0.1, 1.0
*BOUNDARY
1, 1, 6, 0.0
15, 1, 6, 0.0
7, 2, 6, 0.0
21, 2, 6, 0.0
*CLOAD
2, 3, -10.000000
3, 3, -10.000000
4, 3, -10.000000
5, 3, -10.000000
6, 3, -10.000000
16, 3, -10.000000
17, 3, -10.000000
18, 3, -10.000000
19, 3, -10.000000
20, 3, -10.000000
*NODE FILE, OUTPUT=3D
U
*EL FILE
S, E
*NODE PRINT, NSET=NALL
U
*END STEP
